CM 
CE
GW	1	20	0	0	0.25	0	0	-0.25	0.0005
GW	2	20	0	0	0.25	0	0	0.75	0.0005
GE	0
GN	-1
EK
EX	0	1	10	0	50	0	0
FR	0	0	0	0	300	0
EN
