CM 
CE
GW	1	5	0	0	0.25	0	0	-0.25	0.0005
GW	2	5	0	0	0.25	0	0	-0.25	0.0005
GE	0
GN	-1
EK
EX	0	1	3	0	50	0	0
FR	0	0	0	0	300	0
EN
