CM Biconical antenna
CM Cone angle 30 deg.
CE
GW	1	1	0	-0.0125	0	0	0.0125	0	0.00125
GW	0	20	0	0.0125	0	0.1250	0.2290	0	0.00125
GW	0	20	0	0.0125	0	0.0625	0.2290	0.1083	0.00125
GW	0	20	0	0.0125	0	-0.0625	0.2290	0.1083	0.00125
GW	0	20	0	0.0125	0	-0.1250	0.2290	0	0.00125
GW	0	20	0	0.0125	0	-0.0625	0.2290	-0.1083	0.00125
GW	0	20	0	0.0125	0	0.0625	0.2290	-0.1083	0.00125
GW	10	20	0	-0.0125	0	-0.1250	-0.2040	0	0.00125
GW	11	20	0	-0.0125	0	-0.0625	-0.2040	-0.1083	0.00125
GW	12	20	0	-0.0125	0	0.0625	-0.2040	-0.1083	0.00125
GW	13	20	0	-0.0125	0	0.1250	-0.2040	0	0.00125
GW	14	20	0	-0.0125	0	0.0625	-0.2040	0.1083	0.00125
GW	15	20	0	-0.0125	0	-0.0625	-0.2040	0.1083	0.00125
GE	0
GN	-1
EK
EX	0	1	1	0	1	0	0
FR	0	0	0	0	599.6	0
EN
