CM Helix
CM Length L in mtr. = 0.75
CM Radius R1 in cm. = 3.17992
CM Radius R2 in cm. = 3.17992
CM Number of turns = 15
CM Segments per turn = 10
CM Rotate X, Y, Z = 0, 0, 0
CM Move X, Y, Z = 0, 0, 0
CM Ground
CM Start angle A1 = 0
CM Stop angle A2 = 360
CM Radial sections = 12
CM Circular sections = 5
CM Rotate X, Y, Z = 0, 0, 0
CM Move X, Y, Z = 0, 0, 0
CE
GW	1	1	0	0	0	0	0	.01	.00095
GW	2	3	0	0	.01	.031799	0	.01	.00095
GW	3	2	.031799	0	.01	.025726	.018691	.015	.00095
GW	4	2	.025726	.018691	.015	.009826	.030243	.02	.00095
GW	5	2	.009826	.030243	.02	-.009826	.030243	.025	.00095
GW	6	2	-.009826	.030243	.025	-.025726	.018691	.03	.00095
GW	7	2	-.025726	.018691	.03	-.031799	0	.035	.00095
GW	8	2	-.031799	0	.035	-.025726	-.018691	.04	.00095
GW	9	2	-.025726	-.018691	.04	-.009826	-.030243	.045	.00095
GW	10	2	-.009826	-.030243	.045	.009826	-.030243	.05	.00095
GW	11	2	.009826	-.030243	.05	.025726	-.018691	.055	.00095
GW	12	2	.025726	-.018691	.055	.031799	0	.06	.00095
GW	13	2	.031799	0	.06	.025726	.018691	.065	.00095
GW	14	2	.025726	.018691	.065	.009826	.030243	.07	.00095
GW	15	2	.009826	.030243	.07	-.009826	.030243	.075	.00095
GW	16	2	-.009826	.030243	.075	-.025726	.018691	.08	.00095
GW	17	2	-.025726	.018691	.08	-.031799	0	.085	.00095
GW	18	2	-.031799	0	.085	-.025726	-.018691	.09	.00095
GW	19	2	-.025726	-.018691	.09	-.009826	-.030243	.095	.00095
GW	20	2	-.009826	-.030243	.095	.009826	-.030243	.1	.00095
GW	21	2	.009826	-.030243	.1	.025726	-.018691	.105	.00095
GW	22	2	.025726	-.018691	.105	.031799	0	.11	.00095
GW	23	2	.031799	0	.11	.025726	.018691	.115	.00095
GW	24	2	.025726	.018691	.115	.009826	.030243	.12	.00095
GW	25	2	.009826	.030243	.12	-.009826	.030243	.125	.00095
GW	26	2	-.009826	.030243	.125	-.025726	.018691	.13	.00095
GW	27	2	-.025726	.018691	.13	-.031799	0	.135	.00095
GW	28	2	-.031799	0	.135	-.025726	-.018691	.14	.00095
GW	29	2	-.025726	-.018691	.14	-.009826	-.030243	.145	.00095
GW	30	2	-.009826	-.030243	.145	.009826	-.030243	.15	.00095
GW	31	2	.009826	-.030243	.15	.025726	-.018691	.155	.00095
GW	32	2	.025726	-.018691	.155	.031799	0	.16	.00095
GW	33	2	.031799	0	.16	.025726	.018691	.165	.00095
GW	34	2	.025726	.018691	.165	.009826	.030243	.17	.00095
GW	35	2	.009826	.030243	.17	-.009826	.030243	.175	.00095
GW	36	2	-.009826	.030243	.175	-.025726	.018691	.18	.00095
GW	37	2	-.025726	.018691	.18	-.031799	0	.185	.00095
GW	38	2	-.031799	0	.185	-.025726	-.018691	.19	.00095
GW	39	2	-.025726	-.018691	.19	-.009826	-.030243	.195	.00095
GW	40	2	-.009826	-.030243	.195	.009826	-.030243	.2	.00095
GW	41	2	.009826	-.030243	.2	.025726	-.018691	.205	.00095
GW	42	2	.025726	-.018691	.205	.031799	0	.21	.00095
GW	43	2	.031799	0	.21	.025726	.018691	.215	.00095
GW	44	2	.025726	.018691	.215	.009826	.030243	.22	.00095
GW	45	2	.009826	.030243	.22	-.009826	.030243	.225	.00095
GW	46	2	-.009826	.030243	.225	-.025726	.018691	.23	.00095
GW	47	2	-.025726	.018691	.23	-.031799	0	.235	.00095
GW	48	2	-.031799	0	.235	-.025726	-.018691	.24	.00095
GW	49	2	-.025726	-.018691	.24	-.009826	-.030243	.245	.00095
GW	50	2	-.009826	-.030243	.245	.009826	-.030243	.25	.00095
GW	51	2	.009826	-.030243	.25	.025726	-.018691	.255	.00095
GW	52	2	.025726	-.018691	.255	.031799	0	.26	.00095
GW	53	2	.031799	0	.26	.025726	.018691	.265	.00095
GW	54	2	.025726	.018691	.265	.009826	.030243	.27	.00095
GW	55	2	.009826	.030243	.27	-.009826	.030243	.275	.00095
GW	56	2	-.009826	.030243	.275	-.025726	.018691	.28	.00095
GW	57	2	-.025726	.018691	.28	-.031799	0	.285	.00095
GW	58	2	-.031799	0	.285	-.025726	-.018691	.29	.00095
GW	59	2	-.025726	-.018691	.29	-.009826	-.030243	.295	.00095
GW	60	2	-.009826	-.030243	.295	.009826	-.030243	.3	.00095
GW	61	2	.009826	-.030243	.3	.025726	-.018691	.305	.00095
GW	62	2	.025726	-.018691	.305	.031799	0	.31	.00095
GW	63	2	.031799	0	.31	.025726	.018691	.315	.00095
GW	64	2	.025726	.018691	.315	.009826	.030243	.32	.00095
GW	65	2	.009826	.030243	.32	-.009826	.030243	.325	.00095
GW	66	2	-.009826	.030243	.325	-.025726	.018691	.33	.00095
GW	67	2	-.025726	.018691	.33	-.031799	0	.335	.00095
GW	68	2	-.031799	0	.335	-.025726	-.018691	.34	.00095
GW	69	2	-.025726	-.018691	.34	-.009826	-.030243	.345	.00095
GW	70	2	-.009826	-.030243	.345	.009826	-.030243	.35	.00095
GW	71	2	.009826	-.030243	.35	.025726	-.018691	.355	.00095
GW	72	2	.025726	-.018691	.355	.031799	0	.36	.00095
GW	73	2	.031799	0	.36	.025726	.018691	.365	.00095
GW	74	2	.025726	.018691	.365	.009826	.030243	.37	.00095
GW	75	2	.009826	.030243	.37	-.009826	.030243	.375	.00095
GW	76	2	-.009826	.030243	.375	-.025726	.018691	.38	.00095
GW	77	2	-.025726	.018691	.38	-.031799	0	.385	.00095
GW	78	2	-.031799	0	.385	-.025726	-.018691	.39	.00095
GW	79	2	-.025726	-.018691	.39	-.009826	-.030243	.395	.00095
GW	80	2	-.009826	-.030243	.395	.009826	-.030243	.4	.00095
GW	81	2	.009826	-.030243	.4	.025726	-.018691	.405	.00095
GW	82	2	.025726	-.018691	.405	.031799	0	.41	.00095
GW	83	2	.031799	0	.41	.025726	.018691	.415	.00095
GW	84	2	.025726	.018691	.415	.009826	.030243	.42	.00095
GW	85	2	.009826	.030243	.42	-.009826	.030243	.425	.00095
GW	86	2	-.009826	.030243	.425	-.025726	.018691	.43	.00095
GW	87	2	-.025726	.018691	.43	-.031799	0	.435	.00095
GW	88	2	-.031799	0	.435	-.025726	-.018691	.44	.00095
GW	89	2	-.025726	-.018691	.44	-.009826	-.030243	.445	.00095
GW	90	2	-.009826	-.030243	.445	.009826	-.030243	.45	.00095
GW	91	2	.009826	-.030243	.45	.025726	-.018691	.455	.00095
GW	92	2	.025726	-.018691	.455	.031799	0	.46	.00095
GW	93	2	.031799	0	.46	.025726	.018691	.465	.00095
GW	94	2	.025726	.018691	.465	.009826	.030243	.47	.00095
GW	95	2	.009826	.030243	.47	-.009826	.030243	.475	.00095
GW	96	2	-.009826	.030243	.475	-.025726	.018691	.48	.00095
GW	97	2	-.025726	.018691	.48	-.031799	0	.485	.00095
GW	98	2	-.031799	0	.485	-.025726	-.018691	.49	.00095
GW	99	2	-.025726	-.018691	.49	-.009826	-.030243	.495	.00095
GW	100	2	-.009826	-.030243	.495	.009826	-.030243	.5	.00095
GW	101	2	.009826	-.030243	.5	.025726	-.018691	.505	.00095
GW	102	2	.025726	-.018691	.505	.031799	0	.51	.00095
GW	103	2	.031799	0	.51	.025726	.018691	.515	.00095
GW	104	2	.025726	.018691	.515	.009826	.030243	.52	.00095
GW	105	2	.009826	.030243	.52	-.009826	.030243	.525	.00095
GW	106	2	-.009826	.030243	.525	-.025726	.018691	.53	.00095
GW	107	2	-.025726	.018691	.53	-.031799	0	.535	.00095
GW	108	2	-.031799	0	.535	-.025726	-.018691	.54	.00095
GW	109	2	-.025726	-.018691	.54	-.009826	-.030243	.545	.00095
GW	110	2	-.009826	-.030243	.545	.009826	-.030243	.55	.00095
GW	111	2	.009826	-.030243	.55	.025726	-.018691	.555	.00095
GW	112	2	.025726	-.018691	.555	.031799	0	.56	.00095
GW	113	2	.031799	0	.56	.025726	.018691	.565	.00095
GW	114	2	.025726	.018691	.565	.009826	.030243	.57	.00095
GW	115	2	.009826	.030243	.57	-.009826	.030243	.575	.00095
GW	116	2	-.009826	.030243	.575	-.025726	.018691	.58	.00095
GW	117	2	-.025726	.018691	.58	-.031799	0	.585	.00095
GW	118	2	-.031799	0	.585	-.025726	-.018691	.59	.00095
GW	119	2	-.025726	-.018691	.59	-.009826	-.030243	.595	.00095
GW	120	2	-.009826	-.030243	.595	.009826	-.030243	.6	.00095
GW	121	2	.009826	-.030243	.6	.025726	-.018691	.605	.00095
GW	122	2	.025726	-.018691	.605	.031799	0	.61	.00095
GW	123	2	.031799	0	.61	.025726	.018691	.615	.00095
GW	124	2	.025726	.018691	.615	.009826	.030243	.62	.00095
GW	125	2	.009826	.030243	.62	-.009826	.030243	.625	.00095
GW	126	2	-.009826	.030243	.625	-.025726	.018691	.63	.00095
GW	127	2	-.025726	.018691	.63	-.031799	0	.635	.00095
GW	128	2	-.031799	0	.635	-.025726	-.018691	.64	.00095
GW	129	2	-.025726	-.018691	.64	-.009826	-.030243	.645	.00095
GW	130	2	-.009826	-.030243	.645	.009826	-.030243	.65	.00095
GW	131	2	.009826	-.030243	.65	.025726	-.018691	.655	.00095
GW	132	2	.025726	-.018691	.655	.031799	0	.66	.00095
GW	133	2	.031799	0	.66	.025726	.018691	.665	.00095
GW	134	2	.025726	.018691	.665	.009826	.030243	.67	.00095
GW	135	2	.009826	.030243	.67	-.009826	.030243	.675	.00095
GW	136	2	-.009826	.030243	.675	-.025726	.018691	.68	.00095
GW	137	2	-.025726	.018691	.68	-.031799	0	.685	.00095
GW	138	2	-.031799	0	.685	-.025726	-.018691	.69	.00095
GW	139	2	-.025726	-.018691	.69	-.009826	-.030243	.695	.00095
GW	140	2	-.009826	-.030243	.695	.009826	-.030243	.7	.00095
GW	141	2	.009826	-.030243	.7	.025726	-.018691	.705	.00095
GW	142	2	.025726	-.018691	.705	.031799	0	.71	.00095
GW	143	2	.031799	0	.71	.025726	.018691	.715	.00095
GW	144	2	.025726	.018691	.715	.009826	.030243	.72	.00095
GW	145	2	.009826	.030243	.72	-.009826	.030243	.725	.00095
GW	146	2	-.009826	.030243	.725	-.025726	.018691	.73	.00095
GW	147	2	-.025726	.018691	.73	-.031799	0	.735	.00095
GW	148	2	-.031799	0	.735	-.025726	-.018691	.74	.00095
GW	149	2	-.025726	-.018691	.74	-.009826	-.030243	.745	.00095
GW	150	2	-.009826	-.030243	.745	.009826	-.030243	.75	.00095
GW	151	2	.009826	-.030243	.75	.025726	-.018691	.755	.00095
GW	152	2	.025726	-.018691	.755	.031799	0	.76	.00095
GW	153	3	.031799	0	.76	0	0	.76	.00095
GW	154	2	0	0	0	.0198	0	0	.00095
GW	155	2	.0198	0	0	.0396	0	0	.00095
GW	156	2	.0396	0	0	.0594	0	0	.00095
GW	157	2	.0594	0	0	.0792	0	0	.00095
GW	158	2	.0792	0	0	.099	0	0	.00095
GW	159	2	0	0	0	.017147	.0099	0	.00095
GW	160	2	.017147	.0099	0	.034295	.0198	0	.00095
GW	161	2	.034295	.0198	0	.051442	.0297	0	.00095
GW	162	2	.051442	.0297	0	.068589	.0396	0	.00095
GW	163	2	.068589	.0396	0	.085737	.0495	0	.00095
GW	164	2	0	0	0	.0099	.017147	0	.00095
GW	165	2	.0099	.017147	0	.0198	.034295	0	.00095
GW	166	2	.0198	.034295	0	.0297	.051442	0	.00095
GW	167	2	.0297	.051442	0	.0396	.068589	0	.00095
GW	168	2	.0396	.068589	0	.0495	.085737	0	.00095
GW	169	2	0	0	0	0	.0198	0	.00095
GW	170	2	0	.0198	0	0	.0396	0	.00095
GW	171	2	0	.0396	0	0	.0594	0	.00095
GW	172	2	0	.0594	0	0	.0792	0	.00095
GW	173	2	0	.0792	0	0	.099	0	.00095
GW	174	2	0	0	0	-.0099	.017147	0	.00095
GW	175	2	-.0099	.017147	0	-.0198	.034295	0	.00095
GW	176	2	-.0198	.034295	0	-.0297	.051442	0	.00095
GW	177	2	-.0297	.051442	0	-.0396	.068589	0	.00095
GW	178	2	-.0396	.068589	0	-.0495	.085737	0	.00095
GW	179	2	0	0	0	-.017147	.0099	0	.00095
GW	180	2	-.017147	.0099	0	-.034295	.0198	0	.00095
GW	181	2	-.034295	.0198	0	-.051442	.0297	0	.00095
GW	182	2	-.051442	.0297	0	-.068589	.0396	0	.00095
GW	183	2	-.068589	.0396	0	-.085737	.0495	0	.00095
GW	184	2	0	0	0	-.0198	0	0	.00095
GW	185	2	-.0198	0	0	-.0396	0	0	.00095
GW	186	2	-.0396	0	0	-.0594	0	0	.00095
GW	187	2	-.0594	0	0	-.0792	0	0	.00095
GW	188	2	-.0792	0	0	-.099	0	0	.00095
GW	189	2	0	0	0	-.017147	-.0099	0	.00095
GW	190	2	-.017147	-.0099	0	-.034295	-.0198	0	.00095
GW	191	2	-.034295	-.0198	0	-.051442	-.0297	0	.00095
GW	192	2	-.051442	-.0297	0	-.068589	-.0396	0	.00095
GW	193	2	-.068589	-.0396	0	-.085737	-.0495	0	.00095
GW	194	2	0	0	0	-.0099	-.017147	0	.00095
GW	195	2	-.0099	-.017147	0	-.0198	-.034295	0	.00095
GW	196	2	-.0198	-.034295	0	-.0297	-.051442	0	.00095
GW	197	2	-.0297	-.051442	0	-.0396	-.068589	0	.00095
GW	198	2	-.0396	-.068589	0	-.0495	-.085737	0	.00095
GW	199	2	0	0	0	0	-.0198	0	.00095
GW	200	2	0	-.0198	0	0	-.0396	0	.00095
GW	201	2	0	-.0396	0	0	-.0594	0	.00095
GW	202	2	0	-.0594	0	0	-.0792	0	.00095
GW	203	2	0	-.0792	0	0	-.099	0	.00095
GW	204	2	0	0	0	.0099	-.017147	0	.00095
GW	205	2	.0099	-.017147	0	.0198	-.034295	0	.00095
GW	206	2	.0198	-.034295	0	.0297	-.051442	0	.00095
GW	207	2	.0297	-.051442	0	.0396	-.068589	0	.00095
GW	208	2	.0396	-.068589	0	.0495	-.085737	0	.00095
GW	209	2	0	0	0	.017147	-.0099	0	.00095
GW	210	2	.017147	-.0099	0	.034295	-.0198	0	.00095
GW	211	2	.034295	-.0198	0	.051442	-.0297	0	.00095
GW	212	2	.051442	-.0297	0	.068589	-.0396	0	.00095
GW	213	2	.068589	-.0396	0	.085737	-.0495	0	.00095
GW	214	1	.0198	0	0	.017147	.0099	0	.00095
GW	215	1	.017147	.0099	0	.0099	.017147	0	.00095
GW	216	1	.0099	.017147	0	0	.0198	0	.00095
GW	217	1	0	.0198	0	-.0099	.017147	0	.00095
GW	218	1	-.0099	.017147	0	-.017147	.0099	0	.00095
GW	219	1	-.017147	.0099	0	-.0198	0	0	.00095
GW	220	1	-.0198	0	0	-.017147	-.0099	0	.00095
GW	221	1	-.017147	-.0099	0	-.0099	-.017147	0	.00095
GW	222	1	-.0099	-.017147	0	0	-.0198	0	.00095
GW	223	1	0	-.0198	0	.0099	-.017147	0	.00095
GW	224	1	.0099	-.017147	0	.017147	-.0099	0	.00095
GW	225	1	.017147	-.0099	0	.0198	0	0	.00095
GW	226	2	.0396	0	0	.034295	.0198	0	.00095
GW	227	2	.034295	.0198	0	.0198	.034295	0	.00095
GW	228	2	.0198	.034295	0	0	.0396	0	.00095
GW	229	2	0	.0396	0	-.0198	.034295	0	.00095
GW	230	2	-.0198	.034295	0	-.034295	.0198	0	.00095
GW	231	2	-.034295	.0198	0	-.0396	0	0	.00095
GW	232	2	-.0396	0	0	-.034295	-.0198	0	.00095
GW	233	2	-.034295	-.0198	0	-.0198	-.034295	0	.00095
GW	234	2	-.0198	-.034295	0	0	-.0396	0	.00095
GW	235	2	0	-.0396	0	.0198	-.034295	0	.00095
GW	236	3	.0198	-.034295	0	.034295	-.0198	0	.00095
GW	237	3	.034295	-.0198	0	.0396	0	0	.00095
GW	238	3	.0594	0	0	.051442	.0297	0	.00095
GW	239	3	.051442	.0297	0	.0297	.051442	0	.00095
GW	240	3	.0297	.051442	0	0	.0594	0	.00095
GW	241	3	0	.0594	0	-.0297	.051442	0	.00095
GW	242	3	-.0297	.051442	0	-.051442	.0297	0	.00095
GW	243	3	-.051442	.0297	0	-.0594	0	0	.00095
GW	244	3	-.0594	0	0	-.051442	-.0297	0	.00095
GW	245	3	-.051442	-.0297	0	-.0297	-.051442	0	.00095
GW	246	3	-.0297	-.051442	0	0	-.0594	0	.00095
GW	247	3	0	-.0594	0	.0297	-.051442	0	.00095
GW	248	3	.0297	-.051442	0	.051442	-.0297	0	.00095
GW	249	3	.051442	-.0297	0	.0594	0	0	.00095
GW	250	4	.0792	0	0	.068589	.0396	0	.00095
GW	251	4	.068589	.0396	0	.0396	.068589	0	.00095
GW	252	4	.0396	.068589	0	0	.0792	0	.00095
GW	253	4	0	.0792	0	-.0396	.068589	0	.00095
GW	254	4	-.0396	.068589	0	-.068589	.0396	0	.00095
GW	255	4	-.068589	.0396	0	-.0792	0	0	.00095
GW	256	4	-.0792	0	0	-.068589	-.0396	0	.00095
GW	257	4	-.068589	-.0396	0	-.0396	-.068589	0	.00095
GW	258	4	-.0396	-.068589	0	0	-.0792	0	.00095
GW	259	4	0	-.0792	0	.0396	-.068589	0	.00095
GW	260	4	.0396	-.068589	0	.068589	-.0396	0	.00095
GW	261	4	.068589	-.0396	0	.0792	0	0	.00095
GW	262	5	.099	0	0	.085737	.0495	0	.00095
GW	263	5	.085737	.0495	0	.0495	.085737	0	.00095
GW	264	5	.0495	.085737	0	0	.099	0	.00095
GW	265	5	0	.099	0	-.0495	.085737	0	.00095
GW	266	5	-.0495	.085737	0	-.085737	.0495	0	.00095
GW	267	5	-.085737	.0495	0	-.099	0	0	.00095
GW	268	5	-.099	0	0	-.085737	-.0495	0	.00095
GW	269	5	-.085737	-.0495	0	-.0495	-.085737	0	.00095
GW	270	5	-.0495	-.085737	0	0	-.099	0	.00095
GW	271	5	0	-.099	0	.0495	-.085737	0	.00095
GW	272	5	.0495	-.085737	0	.085737	-.0495	0	.00095
GW	273	5	.085737	-.0495	0	.099	0	0	.00095
GE	0
GN	-1
EK
EX	0	1	1	0	1	0	0
FR	0	0	0	0	1500	0
EN
